L6/1726519/_ATERRAMENTO.dss
! Aterramento do neutro (no 4) dos secundarios de BT
! Reactor de 0.5 ohm entre o no 4 e a terra (no 0).
New Reactor.NEUTRO_node_1021040241 phases=1 bus1=node_1021040241.4 bus2=node_1021040241.0 R=0.5 X=0
New Reactor.NEUTRO_node_1026678253 phases=1 bus1=node_1026678253.4 bus2=node_1026678253.0 R=0.5 X=0
New Reactor.NEUTRO_node_1028936874 phases=1 bus1=node_1028936874.4 bus2=node_1028936874.0 R=0.5 X=0
New Reactor.NEUTRO_node_1029748514 phases=1 bus1=node_1029748514.4 bus2=node_1029748514.0 R=0.5 X=0
New Reactor.NEUTRO_node_1029752829 phases=1 bus1=node_1029752829.4 bus2=node_1029752829.0 R=0.5 X=0
New Reactor.NEUTRO_node_1035064411 phases=1 bus1=node_1035064411.4 bus2=node_1035064411.0 R=0.5 X=0
New Reactor.NEUTRO_node_1035583985 phases=1 bus1=node_1035583985.4 bus2=node_1035583985.0 R=0.5 X=0
New Reactor.NEUTRO_node_1036215208 phases=1 bus1=node_1036215208.4 bus2=node_1036215208.0 R=0.5 X=0
New Reactor.NEUTRO_node_1037791146 phases=1 bus1=node_1037791146.4 bus2=node_1037791146.0 R=0.5 X=0
New Reactor.NEUTRO_node_1044884857 phases=1 bus1=node_1044884857.4 bus2=node_1044884857.0 R=0.5 X=0
New Reactor.NEUTRO_node_1045241256 phases=1 bus1=node_1045241256.4 bus2=node_1045241256.0 R=0.5 X=0
New Reactor.NEUTRO_node_1046353358 phases=1 bus1=node_1046353358.4 bus2=node_1046353358.0 R=0.5 X=0
New Reactor.NEUTRO_node_1051450375 phases=1 bus1=node_1051450375.4 bus2=node_1051450375.0 R=0.5 X=0
New Reactor.NEUTRO_node_1051506149 phases=1 bus1=node_1051506149.4 bus2=node_1051506149.0 R=0.5 X=0
New Reactor.NEUTRO_node_1058896212 phases=1 bus1=node_1058896212.4 bus2=node_1058896212.0 R=0.5 X=0
New Reactor.NEUTRO_node_1062387261 phases=1 bus1=node_1062387261.4 bus2=node_1062387261.0 R=0.5 X=0
New Reactor.NEUTRO_node_1070064824 phases=1 bus1=node_1070064824.4 bus2=node_1070064824.0 R=0.5 X=0
New Reactor.NEUTRO_node_1080142830 phases=1 bus1=node_1080142830.4 bus2=node_1080142830.0 R=0.5 X=0
New Reactor.NEUTRO_node_1104756625 phases=1 bus1=node_1104756625.4 bus2=node_1104756625.0 R=0.5 X=0
New Reactor.NEUTRO_node_1111089703 phases=1 bus1=node_1111089703.4 bus2=node_1111089703.0 R=0.5 X=0
New Reactor.NEUTRO_node_1139916062 phases=1 bus1=node_1139916062.4 bus2=node_1139916062.0 R=0.5 X=0
New Reactor.NEUTRO_node_1139916085 phases=1 bus1=node_1139916085.4 bus2=node_1139916085.0 R=0.5 X=0
New Reactor.NEUTRO_node_1139916090 phases=1 bus1=node_1139916090.4 bus2=node_1139916090.0 R=0.5 X=0
New Reactor.NEUTRO_node_1151715335 phases=1 bus1=node_1151715335.4 bus2=node_1151715335.0 R=0.5 X=0
New Reactor.NEUTRO_node_1152861802 phases=1 bus1=node_1152861802.4 bus2=node_1152861802.0 R=0.5 X=0
New Reactor.NEUTRO_node_1153600446 phases=1 bus1=node_1153600446.4 bus2=node_1153600446.0 R=0.5 X=0
New Reactor.NEUTRO_node_1155030189 phases=1 bus1=node_1155030189.4 bus2=node_1155030189.0 R=0.5 X=0
New Reactor.NEUTRO_node_1157207396 phases=1 bus1=node_1157207396.4 bus2=node_1157207396.0 R=0.5 X=0
New Reactor.NEUTRO_node_1158890523 phases=1 bus1=node_1158890523.4 bus2=node_1158890523.0 R=0.5 X=0
New Reactor.NEUTRO_node_1160964497 phases=1 bus1=node_1160964497.4 bus2=node_1160964497.0 R=0.5 X=0
New Reactor.NEUTRO_node_1161011810 phases=1 bus1=node_1161011810.4 bus2=node_1161011810.0 R=0.5 X=0
New Reactor.NEUTRO_node_1161192130 phases=1 bus1=node_1161192130.4 bus2=node_1161192130.0 R=0.5 X=0
New Reactor.NEUTRO_node_1164936791 phases=1 bus1=node_1164936791.4 bus2=node_1164936791.0 R=0.5 X=0
New Reactor.NEUTRO_node_1169286298 phases=1 bus1=node_1169286298.4 bus2=node_1169286298.0 R=0.5 X=0
New Reactor.NEUTRO_node_1169561553 phases=1 bus1=node_1169561553.4 bus2=node_1169561553.0 R=0.5 X=0
New Reactor.NEUTRO_node_1172528242 phases=1 bus1=node_1172528242.4 bus2=node_1172528242.0 R=0.5 X=0
New Reactor.NEUTRO_node_1172537084 phases=1 bus1=node_1172537084.4 bus2=node_1172537084.0 R=0.5 X=0
New Reactor.NEUTRO_node_1174615164 phases=1 bus1=node_1174615164.4 bus2=node_1174615164.0 R=0.5 X=0
New Reactor.NEUTRO_node_1193534498 phases=1 bus1=node_1193534498.4 bus2=node_1193534498.0 R=0.5 X=0
New Reactor.NEUTRO_node_1208722475 phases=1 bus1=node_1208722475.4 bus2=node_1208722475.0 R=0.5 X=0
New Reactor.NEUTRO_node_1208722682 phases=1 bus1=node_1208722682.4 bus2=node_1208722682.0 R=0.5 X=0
New Reactor.NEUTRO_node_1212899929 phases=1 bus1=node_1212899929.4 bus2=node_1212899929.0 R=0.5 X=0
New Reactor.NEUTRO_node_1213201107 phases=1 bus1=node_1213201107.4 bus2=node_1213201107.0 R=0.5 X=0
New Reactor.NEUTRO_node_1220406421 phases=1 bus1=node_1220406421.4 bus2=node_1220406421.0 R=0.5 X=0
New Reactor.NEUTRO_node_1226573129 phases=1 bus1=node_1226573129.4 bus2=node_1226573129.0 R=0.5 X=0
New Reactor.NEUTRO_node_1227969437 phases=1 bus1=node_1227969437.4 bus2=node_1227969437.0 R=0.5 X=0
New Reactor.NEUTRO_node_1227970061 phases=1 bus1=node_1227970061.4 bus2=node_1227970061.0 R=0.5 X=0
New Reactor.NEUTRO_node_1233911779 phases=1 bus1=node_1233911779.4 bus2=node_1233911779.0 R=0.5 X=0
New Reactor.NEUTRO_node_1233911984 phases=1 bus1=node_1233911984.4 bus2=node_1233911984.0 R=0.5 X=0
New Reactor.NEUTRO_node_1242181367 phases=1 bus1=node_1242181367.4 bus2=node_1242181367.0 R=0.5 X=0
New Reactor.NEUTRO_node_1245290094 phases=1 bus1=node_1245290094.4 bus2=node_1245290094.0 R=0.5 X=0
New Reactor.NEUTRO_node_1252735902 phases=1 bus1=node_1252735902.4 bus2=node_1252735902.0 R=0.5 X=0
New Reactor.NEUTRO_node_1259207097 phases=1 bus1=node_1259207097.4 bus2=node_1259207097.0 R=0.5 X=0
New Reactor.NEUTRO_node_1266893218 phases=1 bus1=node_1266893218.4 bus2=node_1266893218.0 R=0.5 X=0
New Reactor.NEUTRO_node_1277731516 phases=1 bus1=node_1277731516.4 bus2=node_1277731516.0 R=0.5 X=0
New Reactor.NEUTRO_node_1303822015 phases=1 bus1=node_1303822015.4 bus2=node_1303822015.0 R=0.5 X=0
New Reactor.NEUTRO_node_1323277807 phases=1 bus1=node_1323277807.4 bus2=node_1323277807.0 R=0.5 X=0
New Reactor.NEUTRO_node_1335189737 phases=1 bus1=node_1335189737.4 bus2=node_1335189737.0 R=0.5 X=0
New Reactor.NEUTRO_node_1344614772 phases=1 bus1=node_1344614772.4 bus2=node_1344614772.0 R=0.5 X=0
New Reactor.NEUTRO_node_1378331354 phases=1 bus1=node_1378331354.4 bus2=node_1378331354.0 R=0.5 X=0
New Reactor.NEUTRO_node_1378331494 phases=1 bus1=node_1378331494.4 bus2=node_1378331494.0 R=0.5 X=0
New Reactor.NEUTRO_node_1378331529 phases=1 bus1=node_1378331529.4 bus2=node_1378331529.0 R=0.5 X=0
New Reactor.NEUTRO_node_1378331566 phases=1 bus1=node_1378331566.4 bus2=node_1378331566.0 R=0.5 X=0
New Reactor.NEUTRO_node_1378331576 phases=1 bus1=node_1378331576.4 bus2=node_1378331576.0 R=0.5 X=0
New Reactor.NEUTRO_node_1378331586 phases=1 bus1=node_1378331586.4 bus2=node_1378331586.0 R=0.5 X=0
New Reactor.NEUTRO_node_1381190927 phases=1 bus1=node_1381190927.4 bus2=node_1381190927.0 R=0.5 X=0
New Reactor.NEUTRO_node_1401600799 phases=1 bus1=node_1401600799.4 bus2=node_1401600799.0 R=0.5 X=0
New Reactor.NEUTRO_node_1407852388 phases=1 bus1=node_1407852388.4 bus2=node_1407852388.0 R=0.5 X=0
New Reactor.NEUTRO_node_1427343209 phases=1 bus1=node_1427343209.4 bus2=node_1427343209.0 R=0.5 X=0
New Reactor.NEUTRO_node_1427377170 phases=1 bus1=node_1427377170.4 bus2=node_1427377170.0 R=0.5 X=0
New Reactor.NEUTRO_node_1448366230 phases=1 bus1=node_1448366230.4 bus2=node_1448366230.0 R=0.5 X=0
New Reactor.NEUTRO_node_1451981849 phases=1 bus1=node_1451981849.4 bus2=node_1451981849.0 R=0.5 X=0
New Reactor.NEUTRO_node_1482490624 phases=1 bus1=node_1482490624.4 bus2=node_1482490624.0 R=0.5 X=0
New Reactor.NEUTRO_node_1483911988 phases=1 bus1=node_1483911988.4 bus2=node_1483911988.0 R=0.5 X=0
New Reactor.NEUTRO_node_1499220073 phases=1 bus1=node_1499220073.4 bus2=node_1499220073.0 R=0.5 X=0
New Reactor.NEUTRO_node_1499262998 phases=1 bus1=node_1499262998.4 bus2=node_1499262998.0 R=0.5 X=0
New Reactor.NEUTRO_node_1503144790 phases=1 bus1=node_1503144790.4 bus2=node_1503144790.0 R=0.5 X=0
New Reactor.NEUTRO_node_1547935507 phases=1 bus1=node_1547935507.4 bus2=node_1547935507.0 R=0.5 X=0
New Reactor.NEUTRO_node_1556819788 phases=1 bus1=node_1556819788.4 bus2=node_1556819788.0 R=0.5 X=0
New Reactor.NEUTRO_node_1561517418 phases=1 bus1=node_1561517418.4 bus2=node_1561517418.0 R=0.5 X=0
New Reactor.NEUTRO_node_1571930439 phases=1 bus1=node_1571930439.4 bus2=node_1571930439.0 R=0.5 X=0
New Reactor.NEUTRO_node_1578525966 phases=1 bus1=node_1578525966.4 bus2=node_1578525966.0 R=0.5 X=0
New Reactor.NEUTRO_node_1596393286 phases=1 bus1=node_1596393286.4 bus2=node_1596393286.0 R=0.5 X=0
New Reactor.NEUTRO_node_1600717337 phases=1 bus1=node_1600717337.4 bus2=node_1600717337.0 R=0.5 X=0
New Reactor.NEUTRO_node_1626713231 phases=1 bus1=node_1626713231.4 bus2=node_1626713231.0 R=0.5 X=0
New Reactor.NEUTRO_node_1630655459 phases=1 bus1=node_1630655459.4 bus2=node_1630655459.0 R=0.5 X=0
New Reactor.NEUTRO_node_1630723798 phases=1 bus1=node_1630723798.4 bus2=node_1630723798.0 R=0.5 X=0
New Reactor.NEUTRO_node_1632377111 phases=1 bus1=node_1632377111.4 bus2=node_1632377111.0 R=0.5 X=0
New Reactor.NEUTRO_node_1633575177 phases=1 bus1=node_1633575177.4 bus2=node_1633575177.0 R=0.5 X=0
New Reactor.NEUTRO_node_1635807938 phases=1 bus1=node_1635807938.4 bus2=node_1635807938.0 R=0.5 X=0
New Reactor.NEUTRO_node_1636125818 phases=1 bus1=node_1636125818.4 bus2=node_1636125818.0 R=0.5 X=0
New Reactor.NEUTRO_node_1638204042 phases=1 bus1=node_1638204042.4 bus2=node_1638204042.0 R=0.5 X=0
New Reactor.NEUTRO_node_1654341084 phases=1 bus1=node_1654341084.4 bus2=node_1654341084.0 R=0.5 X=0
New Reactor.NEUTRO_node_1656857141 phases=1 bus1=node_1656857141.4 bus2=node_1656857141.0 R=0.5 X=0
New Reactor.NEUTRO_node_1657514184 phases=1 bus1=node_1657514184.4 bus2=node_1657514184.0 R=0.5 X=0
New Reactor.NEUTRO_node_1661833940 phases=1 bus1=node_1661833940.4 bus2=node_1661833940.0 R=0.5 X=0
New Reactor.NEUTRO_node_1666810747 phases=1 bus1=node_1666810747.4 bus2=node_1666810747.0 R=0.5 X=0
New Reactor.NEUTRO_node_1686236746 phases=1 bus1=node_1686236746.4 bus2=node_1686236746.0 R=0.5 X=0
New Reactor.NEUTRO_node_1691565513 phases=1 bus1=node_1691565513.4 bus2=node_1691565513.0 R=0.5 X=0
New Reactor.NEUTRO_node_1700153523 phases=1 bus1=node_1700153523.4 bus2=node_1700153523.0 R=0.5 X=0
New Reactor.NEUTRO_node_1709591707 phases=1 bus1=node_1709591707.4 bus2=node_1709591707.0 R=0.5 X=0
New Reactor.NEUTRO_node_1718454716 phases=1 bus1=node_1718454716.4 bus2=node_1718454716.0 R=0.5 X=0
New Reactor.NEUTRO_node_1718455833 phases=1 bus1=node_1718455833.4 bus2=node_1718455833.0 R=0.5 X=0
New Reactor.NEUTRO_node_1719051805 phases=1 bus1=node_1719051805.4 bus2=node_1719051805.0 R=0.5 X=0
New Reactor.NEUTRO_node_1730404757 phases=1 bus1=node_1730404757.4 bus2=node_1730404757.0 R=0.5 X=0
New Reactor.NEUTRO_node_1731976701 phases=1 bus1=node_1731976701.4 bus2=node_1731976701.0 R=0.5 X=0
New Reactor.NEUTRO_node_1732836065 phases=1 bus1=node_1732836065.4 bus2=node_1732836065.0 R=0.5 X=0
New Reactor.NEUTRO_node_1732836222 phases=1 bus1=node_1732836222.4 bus2=node_1732836222.0 R=0.5 X=0
New Reactor.NEUTRO_node_1734092424 phases=1 bus1=node_1734092424.4 bus2=node_1734092424.0 R=0.5 X=0
New Reactor.NEUTRO_node_1734475461 phases=1 bus1=node_1734475461.4 bus2=node_1734475461.0 R=0.5 X=0
New Reactor.NEUTRO_node_1735647866 phases=1 bus1=node_1735647866.4 bus2=node_1735647866.0 R=0.5 X=0
New Reactor.NEUTRO_node_1742329396 phases=1 bus1=node_1742329396.4 bus2=node_1742329396.0 R=0.5 X=0
New Reactor.NEUTRO_node_1746612082 phases=1 bus1=node_1746612082.4 bus2=node_1746612082.0 R=0.5 X=0
New Reactor.NEUTRO_node_1756658327 phases=1 bus1=node_1756658327.4 bus2=node_1756658327.0 R=0.5 X=0
New Reactor.NEUTRO_node_1791710170 phases=1 bus1=node_1791710170.4 bus2=node_1791710170.0 R=0.5 X=0
New Reactor.NEUTRO_node_1797262401 phases=1 bus1=node_1797262401.4 bus2=node_1797262401.0 R=0.5 X=0
New Reactor.NEUTRO_node_1798945592 phases=1 bus1=node_1798945592.4 bus2=node_1798945592.0 R=0.5 X=0
New Reactor.NEUTRO_node_1798945606 phases=1 bus1=node_1798945606.4 bus2=node_1798945606.0 R=0.5 X=0
New Reactor.NEUTRO_node_1799435483 phases=1 bus1=node_1799435483.4 bus2=node_1799435483.0 R=0.5 X=0
New Reactor.NEUTRO_node_1808019003 phases=1 bus1=node_1808019003.4 bus2=node_1808019003.0 R=0.5 X=0
New Reactor.NEUTRO_node_1808019183 phases=1 bus1=node_1808019183.4 bus2=node_1808019183.0 R=0.5 X=0
New Reactor.NEUTRO_node_1808019301 phases=1 bus1=node_1808019301.4 bus2=node_1808019301.0 R=0.5 X=0
New Reactor.NEUTRO_node_1832507476 phases=1 bus1=node_1832507476.4 bus2=node_1832507476.0 R=0.5 X=0
New Reactor.NEUTRO_node_1860341160 phases=1 bus1=node_1860341160.4 bus2=node_1860341160.0 R=0.5 X=0
New Reactor.NEUTRO_node_1860535099 phases=1 bus1=node_1860535099.4 bus2=node_1860535099.0 R=0.5 X=0
New Reactor.NEUTRO_node_1863695069 phases=1 bus1=node_1863695069.4 bus2=node_1863695069.0 R=0.5 X=0
New Reactor.NEUTRO_node_1869904445 phases=1 bus1=node_1869904445.4 bus2=node_1869904445.0 R=0.5 X=0
New Reactor.NEUTRO_node_1870849507 phases=1 bus1=node_1870849507.4 bus2=node_1870849507.0 R=0.5 X=0
New Reactor.NEUTRO_node_1885311003 phases=1 bus1=node_1885311003.4 bus2=node_1885311003.0 R=0.5 X=0
New Reactor.NEUTRO_node_1893662748 phases=1 bus1=node_1893662748.4 bus2=node_1893662748.0 R=0.5 X=0
New Reactor.NEUTRO_node_1895724473 phases=1 bus1=node_1895724473.4 bus2=node_1895724473.0 R=0.5 X=0
New Reactor.NEUTRO_node_1898334676 phases=1 bus1=node_1898334676.4 bus2=node_1898334676.0 R=0.5 X=0
New Reactor.NEUTRO_node_1900438636 phases=1 bus1=node_1900438636.4 bus2=node_1900438636.0 R=0.5 X=0
New Reactor.NEUTRO_node_1913539840 phases=1 bus1=node_1913539840.4 bus2=node_1913539840.0 R=0.5 X=0
New Reactor.NEUTRO_node_1925605812 phases=1 bus1=node_1925605812.4 bus2=node_1925605812.0 R=0.5 X=0
New Reactor.NEUTRO_node_1935370592 phases=1 bus1=node_1935370592.4 bus2=node_1935370592.0 R=0.5 X=0
New Reactor.NEUTRO_node_1935371131 phases=1 bus1=node_1935371131.4 bus2=node_1935371131.0 R=0.5 X=0
New Reactor.NEUTRO_node_1935512093 phases=1 bus1=node_1935512093.4 bus2=node_1935512093.0 R=0.5 X=0
New Reactor.NEUTRO_node_1940329895 phases=1 bus1=node_1940329895.4 bus2=node_1940329895.0 R=0.5 X=0
New Reactor.NEUTRO_node_1944537917 phases=1 bus1=node_1944537917.4 bus2=node_1944537917.0 R=0.5 X=0
New Reactor.NEUTRO_node_1945890536 phases=1 bus1=node_1945890536.4 bus2=node_1945890536.0 R=0.5 X=0
New Reactor.NEUTRO_node_1948157868 phases=1 bus1=node_1948157868.4 bus2=node_1948157868.0 R=0.5 X=0
New Reactor.NEUTRO_node_1984540847 phases=1 bus1=node_1984540847.4 bus2=node_1984540847.0 R=0.5 X=0
New Reactor.NEUTRO_node_1985249376 phases=1 bus1=node_1985249376.4 bus2=node_1985249376.0 R=0.5 X=0
New Reactor.NEUTRO_node_2014152887 phases=1 bus1=node_2014152887.4 bus2=node_2014152887.0 R=0.5 X=0
New Reactor.NEUTRO_node_2027948933 phases=1 bus1=node_2027948933.4 bus2=node_2027948933.0 R=0.5 X=0
New Reactor.NEUTRO_node_2030044625 phases=1 bus1=node_2030044625.4 bus2=node_2030044625.0 R=0.5 X=0
New Reactor.NEUTRO_node_2068226893 phases=1 bus1=node_2068226893.4 bus2=node_2068226893.0 R=0.5 X=0
New Reactor.NEUTRO_node_2082242272 phases=1 bus1=node_2082242272.4 bus2=node_2082242272.0 R=0.5 X=0
New Reactor.NEUTRO_node_2082645858 phases=1 bus1=node_2082645858.4 bus2=node_2082645858.0 R=0.5 X=0
New Reactor.NEUTRO_node_2085286681 phases=1 bus1=node_2085286681.4 bus2=node_2085286681.0 R=0.5 X=0
New Reactor.NEUTRO_node_2094411462 phases=1 bus1=node_2094411462.4 bus2=node_2094411462.0 R=0.5 X=0
New Reactor.NEUTRO_node_2103690833 phases=1 bus1=node_2103690833.4 bus2=node_2103690833.0 R=0.5 X=0
New Reactor.NEUTRO_node_2138188991 phases=1 bus1=node_2138188991.4 bus2=node_2138188991.0 R=0.5 X=0
New Reactor.NEUTRO_node_2139408263 phases=1 bus1=node_2139408263.4 bus2=node_2139408263.0 R=0.5 X=0
New Reactor.NEUTRO_node_2149812739 phases=1 bus1=node_2149812739.4 bus2=node_2149812739.0 R=0.5 X=0
New Reactor.NEUTRO_node_2154201113 phases=1 bus1=node_2154201113.4 bus2=node_2154201113.0 R=0.5 X=0
New Reactor.NEUTRO_node_2176452571 phases=1 bus1=node_2176452571.4 bus2=node_2176452571.0 R=0.5 X=0
New Reactor.NEUTRO_node_2215978900 phases=1 bus1=node_2215978900.4 bus2=node_2215978900.0 R=0.5 X=0
New Reactor.NEUTRO_node_2219947247 phases=1 bus1=node_2219947247.4 bus2=node_2219947247.0 R=0.5 X=0
New Reactor.NEUTRO_node_2243589949 phases=1 bus1=node_2243589949.4 bus2=node_2243589949.0 R=0.5 X=0
New Reactor.NEUTRO_node_2248746353 phases=1 bus1=node_2248746353.4 bus2=node_2248746353.0 R=0.5 X=0
New Reactor.NEUTRO_node_2256827711 phases=1 bus1=node_2256827711.4 bus2=node_2256827711.0 R=0.5 X=0
New Reactor.NEUTRO_node_2257205829 phases=1 bus1=node_2257205829.4 bus2=node_2257205829.0 R=0.5 X=0
New Reactor.NEUTRO_node_2274445932 phases=1 bus1=node_2274445932.4 bus2=node_2274445932.0 R=0.5 X=0
New Reactor.NEUTRO_node_2292798736 phases=1 bus1=node_2292798736.4 bus2=node_2292798736.0 R=0.5 X=0
New Reactor.NEUTRO_node_2298174631 phases=1 bus1=node_2298174631.4 bus2=node_2298174631.0 R=0.5 X=0
New Reactor.NEUTRO_node_2321825951 phases=1 bus1=node_2321825951.4 bus2=node_2321825951.0 R=0.5 X=0
New Reactor.NEUTRO_node_2324818850 phases=1 bus1=node_2324818850.4 bus2=node_2324818850.0 R=0.5 X=0
New Reactor.NEUTRO_node_2325669205 phases=1 bus1=node_2325669205.4 bus2=node_2325669205.0 R=0.5 X=0
New Reactor.NEUTRO_node_2332926017 phases=1 bus1=node_2332926017.4 bus2=node_2332926017.0 R=0.5 X=0
New Reactor.NEUTRO_node_2339083537 phases=1 bus1=node_2339083537.4 bus2=node_2339083537.0 R=0.5 X=0
New Reactor.NEUTRO_node_2345868315 phases=1 bus1=node_2345868315.4 bus2=node_2345868315.0 R=0.5 X=0
New Reactor.NEUTRO_node_2375578345 phases=1 bus1=node_2375578345.4 bus2=node_2375578345.0 R=0.5 X=0
New Reactor.NEUTRO_node_2378450917 phases=1 bus1=node_2378450917.4 bus2=node_2378450917.0 R=0.5 X=0
New Reactor.NEUTRO_node_2379225162 phases=1 bus1=node_2379225162.4 bus2=node_2379225162.0 R=0.5 X=0
New Reactor.NEUTRO_node_2389744195 phases=1 bus1=node_2389744195.4 bus2=node_2389744195.0 R=0.5 X=0
New Reactor.NEUTRO_node_2399315461 phases=1 bus1=node_2399315461.4 bus2=node_2399315461.0 R=0.5 X=0
New Reactor.NEUTRO_node_2399809443 phases=1 bus1=node_2399809443.4 bus2=node_2399809443.0 R=0.5 X=0
New Reactor.NEUTRO_node_2399903834 phases=1 bus1=node_2399903834.4 bus2=node_2399903834.0 R=0.5 X=0
New Reactor.NEUTRO_node_2422146718 phases=1 bus1=node_2422146718.4 bus2=node_2422146718.0 R=0.5 X=0
New Reactor.NEUTRO_node_2445866834 phases=1 bus1=node_2445866834.4 bus2=node_2445866834.0 R=0.5 X=0
New Reactor.NEUTRO_node_2445866986 phases=1 bus1=node_2445866986.4 bus2=node_2445866986.0 R=0.5 X=0
New Reactor.NEUTRO_node_2454017282 phases=1 bus1=node_2454017282.4 bus2=node_2454017282.0 R=0.5 X=0
New Reactor.NEUTRO_node_2454017912 phases=1 bus1=node_2454017912.4 bus2=node_2454017912.0 R=0.5 X=0
New Reactor.NEUTRO_node_2495999404 phases=1 bus1=node_2495999404.4 bus2=node_2495999404.0 R=0.5 X=0
New Reactor.NEUTRO_node_2498257794 phases=1 bus1=node_2498257794.4 bus2=node_2498257794.0 R=0.5 X=0
New Reactor.NEUTRO_node_2507670323 phases=1 bus1=node_2507670323.4 bus2=node_2507670323.0 R=0.5 X=0
New Reactor.NEUTRO_node_2510118055 phases=1 bus1=node_2510118055.4 bus2=node_2510118055.0 R=0.5 X=0
New Reactor.NEUTRO_node_2510118531 phases=1 bus1=node_2510118531.4 bus2=node_2510118531.0 R=0.5 X=0
New Reactor.NEUTRO_node_2510118974 phases=1 bus1=node_2510118974.4 bus2=node_2510118974.0 R=0.5 X=0
New Reactor.NEUTRO_node_2514295967 phases=1 bus1=node_2514295967.4 bus2=node_2514295967.0 R=0.5 X=0
New Reactor.NEUTRO_node_2545594893 phases=1 bus1=node_2545594893.4 bus2=node_2545594893.0 R=0.5 X=0
New Reactor.NEUTRO_node_2553899919 phases=1 bus1=node_2553899919.4 bus2=node_2553899919.0 R=0.5 X=0
New Reactor.NEUTRO_node_2558824739 phases=1 bus1=node_2558824739.4 bus2=node_2558824739.0 R=0.5 X=0
New Reactor.NEUTRO_node_2578912036 phases=1 bus1=node_2578912036.4 bus2=node_2578912036.0 R=0.5 X=0
New Reactor.NEUTRO_node_2594237661 phases=1 bus1=node_2594237661.4 bus2=node_2594237661.0 R=0.5 X=0
New Reactor.NEUTRO_node_2630538926 phases=1 bus1=node_2630538926.4 bus2=node_2630538926.0 R=0.5 X=0
New Reactor.NEUTRO_node_2662490490 phases=1 bus1=node_2662490490.4 bus2=node_2662490490.0 R=0.5 X=0
New Reactor.NEUTRO_node_2677223143 phases=1 bus1=node_2677223143.4 bus2=node_2677223143.0 R=0.5 X=0
...
